OPT_V8/Brussels_test_1203-1157/powerflow_results_t7.txt
Pandapower Network Debug Info
==================================================

BUS:
       vm_pu  va_degree      p_mw    q_mvar
0   0.992760   0.068844  0.001168  0.000892
1   0.988219   0.112883  0.001752  0.001785
2   0.984154   0.158491  0.002335  0.002677
3   0.988909   0.119220  0.002919  0.003569
4   0.989159   0.145732  0.003503  0.004461
5   0.991658   0.087974  0.004087  0.005354
6   0.989814   0.077793  0.001401  0.000892
7   0.997400   0.005457  0.002102  0.001785
8   0.997750   0.023540  0.002569  0.002677
9   0.999880  -0.000125  0.011677  0.008923
10  0.999866  -0.000186  0.012845  0.008030
11  0.999855  -0.000217  0.014012  0.009815
12  0.999761  -0.000280  0.011677  0.005354
13  0.999732  -0.000360  0.014012  0.008923
14  0.999742  -0.000304  0.015180  0.010707
15  0.999926   0.000020  0.000000  0.000000
16  0.999926   0.000026  0.000000  0.000000
17  0.999766  -0.000206  0.000000  0.000000
18  0.999766  -0.000197  0.000000  0.000000
19  1.000000   0.000000 -0.046852 -0.040787
20  1.000000   0.000006  0.000000  0.000000
21  1.000000   0.000000 -0.054682 -0.045253
22  1.000000   0.000006  0.000000  0.000000
--------------------------------------------------

LINE:
    p_from_mw  q_from_mvar   p_to_mw  q_to_mvar         pl_mw       ql_mvar  i_from_ka   i_to_ka      i_ka  vm_from_pu  va_from_degree  vm_to_pu  va_to_degree  loading_percent
0    0.046842     0.036787 -0.046839  -0.036784  3.469907e-06  2.705544e-06   0.002292  0.002292  0.002292    1.000000        0.000006  0.999926      0.000020         0.996736
1    0.054672     0.041253 -0.054660  -0.041243  1.261785e-05  9.838349e-06   0.002636  0.002636  0.002636    1.000000        0.000006  0.999766     -0.000206         1.146166
2    0.038536     0.026769 -0.038535  -0.026768  1.702735e-06  1.327650e-06   0.001806  0.001806  0.001806    0.999926        0.000020  0.999880     -0.000125         0.785280
3    0.011677     0.005354 -0.011677  -0.005354  5.709204e-08  4.451560e-08   0.000495  0.000495  0.000495    0.999766       -0.000206  0.999761     -0.000280         0.215021
4    0.029193     0.019630 -0.029193  -0.019630  6.770211e-07  5.278845e-07   0.001354  0.001354  0.001354    0.999766       -0.000206  0.999742     -0.000304         0.588857
5    0.008293     0.009015 -0.008222  -0.008960  7.018738e-05  5.472625e-05   0.017681  0.017681  0.017681    0.999926        0.000026  0.992760      0.068844         7.687548
6    0.005545     0.006290 -0.005491  -0.006248  5.457806e-05  4.255541e-05   0.012106  0.012106  0.012106    0.999766       -0.000197  0.991658      0.087974         5.263576
7    0.002107     0.001789 -0.002102  -0.001785  5.162941e-06  4.025630e-06   0.003990  0.003990  0.003990    0.999766       -0.000197  0.997400      0.005457         1.734814
8    0.006127     0.007181 -0.006112  -0.007169  1.532914e-05  1.195238e-05   0.013629  0.013629  0.013629    0.999766       -0.000197  0.997750      0.023540         5.925501
9   -0.026857    -0.017845  0.026858   0.017845  3.596675e-07  2.804386e-07   0.001241  0.001241  0.001241    0.999866       -0.000186  0.999880     -0.000125         0.539690
10  -0.014012    -0.009815  0.014013   0.009815  1.431794e-07  1.116394e-07   0.000659  0.000659  0.000659    0.999855       -0.000217  0.999866     -0.000186         0.286336
11   0.014013     0.008923 -0.014012  -0.008923  1.350341e-07  1.052883e-07   0.000640  0.000640  0.000640    0.999742       -0.000304  0.999732     -0.000360         0.278072
12  -0.004099    -0.004470  0.004121   0.004488  2.228456e-05  1.737564e-05   0.008858  0.008858  0.008858    0.988219        0.112883  0.992760      0.068844         3.851504
13  -0.002919    -0.003569  0.002934   0.003580  1.451498e-05  1.131757e-05   0.006730  0.006730  0.006730    0.988909        0.119220  0.992760      0.068844         2.925999
14  -0.002335    -0.002677  0.002347   0.002686  1.178570e-05  9.189500e-06   0.005210  0.005210  0.005210    0.984154        0.158491  0.988219      0.112883         2.265178
15   0.003543     0.004492 -0.003503  -0.004461  4.001117e-05  3.119736e-05   0.008277  0.008277  0.008277    0.997750        0.023540  0.989159      0.145732         3.598660
16  -0.001401    -0.000892  0.001404   0.000894  2.452250e-06  1.912060e-06   0.002422  0.002422  0.002422    0.989814        0.077793  0.991658      0.087974         1.053220
--------------------------------------------------

TRAFO:
    p_hv_mw  q_hv_mvar   p_lv_mw  q_lv_mvar    pl_mw   ql_mvar   i_hv_ka   i_lv_ka  vm_hv_pu  va_hv_degree  vm_lv_pu  va_lv_degree  loading_percent
0  0.008303   0.010015 -0.008293  -0.009015  0.00001  0.001000  0.000501  0.017681  0.999926      0.000020  0.999926      0.000026         0.130099
1  0.013790   0.016259 -0.013780  -0.015260  0.00001  0.000999  0.000821  0.029684  0.999766     -0.000206  0.999766     -0.000197         0.213245
2  0.046852   0.040787 -0.046842  -0.036787  0.00001  0.004000  0.000512  0.002292  1.000000      0.000000  1.000000      0.000006         0.155296
3  0.054682   0.045253 -0.054672  -0.041253  0.00001  0.004000  0.000585  0.002636  1.000000      0.000000  1.000000      0.000006         0.177447
--------------------------------------------------
